
Build Time: Oct 24 2013 12:39:08  Build Id: 10399 
Executable Path: C:/PROGRA~1/ANSYSI~1/v150/fluent/ntbin/win64/fluent.exe

------------------------------------------------------------------------------------
ID     Comm.   Hostname              O.S.        PID     Mach ID HW ID   Name        
------------------------------------------------------------------------------------
host   net     ME00534               Windows-x64 5340    0       492     Fluent Host 
n3     pcmpi   ME00534               Windows-x64 8220    0       3       Fluent Node 
n2     pcmpi   ME00534               Windows-x64 8908    0       2       Fluent Node 
n1     pcmpi   ME00534               Windows-x64 8768    0       1       Fluent Node 
n0*    pcmpi   ME00534               Windows-x64 7680    0       0       Fluent Node 

Selected system interconnect: default
------------------------------------------------------------------------------------

ME00534 is already loaded (14.3945%).                       Process affinity not being set.
Reading Settings file G:BaileyFluentHEMJ-60deg-SKEHEMJ-60deg-SKE_filesdp0FFF-12FluentHEMJ60deg-2.set...
Reading "G:BaileyFluentHEMJ-60deg-SKEHEMJ-60deg-SKE_filesdp0FFFFluentHEMJ60deg-2.cas"...
Buffering for file scan...

  843346 hexahedral cells, zone 25, binary.
  930690 hexahedral cells, zone 26, binary.
 4348661 hexahedral cells, zone 27, binary.
  843346 cell partition ids, zone 25, 4 partitions, binary.
  930690 cell partition ids, zone 26, 4 partitions, binary.
 4348661 cell partition ids, zone 27, 4 partitions, binary.
 2491318 quadrilateral interior faces, zone 28, binary.
 2753640 quadrilateral interior faces, zone 29, binary.
12920154 quadrilateral interior faces, zone 30, binary.
    6680 quadrilateral wall faces, zone  4, binary.
    7614 quadrilateral wall faces, zone  5, binary.
    5643 quadrilateral wall faces, zone  6, binary.
    2808 quadrilateral wall faces, zone  7, binary.
    2376 quadrilateral wall faces, zone  8, binary.
    3672 quadrilateral wall faces, zone  9, binary.
    7533 quadrilateral wall faces, zone 39, binary.
    6680 quadrilateral wall faces, zone 42, binary.
    7614 quadrilateral wall faces, zone 43, binary.
    5643 quadrilateral wall faces, zone 46, binary.
    2808 quadrilateral wall faces, zone 47, binary.
    2376 quadrilateral wall faces, zone 48, binary.
    3672 quadrilateral wall faces, zone 49, binary.
    3186 quadrilateral wall faces, zone 173, binary.
    3132 quadrilateral wall faces, zone 244, binary.
   31050 quadrilateral wall faces, zone 245, binary.
    3132 quadrilateral wall faces, zone 249, binary.
   31050 quadrilateral wall faces, zone 267, binary.
   14850 quadrilateral wall faces, zone 303, binary.
    6966 quadrilateral pressure-outlet faces, zone 293, binary.
   18423 quadrilateral symmetry faces, zone 36, binary.
   85202 quadrilateral symmetry faces, zone 37, binary.
   14455 quadrilateral symmetry faces, zone 38, binary.
   85202 quadrilateral symmetry faces, zone 261, binary.
   14455 quadrilateral symmetry faces, zone 262, binary.
   18423 quadrilateral symmetry faces, zone 263, binary.
   11313 quadrilateral mass-flow-inlet faces, zone 292, binary.
    6680 shadow face pairs, binary. 
    7614 shadow face pairs, binary. 
    5643 shadow face pairs, binary. 
    2808 shadow face pairs, binary. 
    2376 shadow face pairs, binary. 
    3672 shadow face pairs, binary. 
    3132 shadow face pairs, binary. 
   31050 shadow face pairs, binary. 
 6324416 nodes, binary.
 6324416 node flags, binary.

Building...
     mesh
	distributing mesh
		pairs....,
		parts....,
		faces....,
		nodes....,
		shadow nodes....,
		cells....,
     materials,
     interface,
     domains,
	mixture
     zones,
	thimble-walls
	thimble-inner
	jet-surf2
	jet
	jet-surf1
	cool-surf4
	cool-surf3
	cool-surf2
	cool-surf1
	jet-bottom
	pressure-outlet
	mass-flow-inlet
	symmetry2-thimble
	symmetry2-fluid
	symmetry2-jet
	symmetry1-jet
	symmetry1-fluid
	symmetry1-thimble
	heated-surf
	int_thimble_matpoint
	int_jet_matpoint
	int_fluid_matpoint
	cool-surf1-shadow
	cool-surf2-shadow
	cool-surf3-shadow
	cool-surf4-shadow
	jet-surf1-shadow
	jet-shadow
	jet-surf2-shadow
	thimble-inner-shadow
	fluid_matpoint
	thimble_matpoint
	jet_matpointSetting jet_matpoint (mixture) ... Done.
Setting thimble_matpoint (mixture) ... Done.
Setting fluid_matpoint (mixture) ... Done.
 Setting zone id of jet_matpoint to 25.
 Setting zone id of thimble_matpoint to 26.
 Setting zone id of fluid_matpoint to 27.
 Setting zone id of thimble-inner-shadow to 244.
 Setting zone id of jet-surf2-shadow to 5.
 Setting zone id of jet-shadow to 245.
 Setting zone id of jet-surf1-shadow to 4.
 Setting zone id of cool-surf4-shadow to 9.
 Setting zone id of cool-surf3-shadow to 8.
 Setting zone id of cool-surf2-shadow to 7.
 Setting zone id of cool-surf1-shadow to 6.
 Setting zone id of int_fluid_matpoint to 30.
 Setting zone id of int_jet_matpoint to 28.
 Setting zone id of int_thimble_matpoint to 29.
 Setting zone id of heated-surf to 39.
 Setting zone id of symmetry1-thimble to 263.
 Setting zone id of symmetry1-fluid to 261.
 Setting zone id of symmetry1-jet to 262.
 Setting zone id of symmetry2-jet to 38.
 Setting zone id of symmetry2-fluid to 37.
 Setting zone id of symmetry2-thimble to 36.
 Setting zone id of mass-flow-inlet to 292.
 Setting zone id of pressure-outlet to 293.
 Setting zone id of jet-bottom to 173.
 Setting zone id of cool-surf1 to 46.
 Setting zone id of cool-surf2 to 47.
 Setting zone id of cool-surf3 to 48.
 Setting zone id of cool-surf4 to 49.
 Setting zone id of jet-surf1 to 42.
 Setting zone id of jet to 267.
 Setting zone id of jet-surf2 to 43.
 Setting zone id of thimble-inner to 249.
 Setting zone id of thimble-walls to 303.
Done.
Setting jet_matpoint (mixture) ... Done.
Setting thimble_matpoint (mixture) ... Done.
Setting fluid_matpoint (mixture) ... Done.
Setting thimble-inner-shadow (mixture) ... Done.
Setting jet-surf2-shadow (mixture) ... Done.
Setting jet-shadow (mixture) ... Done.
Setting jet-surf1-shadow (mixture) ... Done.
Setting cool-surf4-shadow (mixture) ... Done.
Setting cool-surf3-shadow (mixture) ... Done.
Setting cool-surf2-shadow (mixture) ... Done.
Setting cool-surf1-shadow (mixture) ... Done.
Setting int_fluid_matpoint (mixture) ... Done.
Setting int_jet_matpoint (mixture) ... Done.
Setting int_thimble_matpoint (mixture) ... Done.
Setting heated-surf (mixture) ... Done.
Setting symmetry1-thimble (mixture) ... Done.
Setting symmetry1-fluid (mixture) ... Done.
Setting symmetry1-jet (mixture) ... Done.
Setting symmetry2-jet (mixture) ... Done.
Setting symmetry2-fluid (mixture) ... Done.
Setting symmetry2-thimble (mixture) ... Done.
Setting mass-flow-inlet (mixture) ... Done.
Setting pressure-outlet (mixture) ... Done.
Setting jet-bottom (mixture) ... Done.
Setting cool-surf1 (mixture) ... Done.
Setting cool-surf2 (mixture) ... Done.
Setting cool-surf3 (mixture) ... Done.
Setting cool-surf4 (mixture) ... Done.
Setting jet-surf1 (mixture) ... Done.
Setting jet (mixture) ... Done.
Setting jet-surf2 (mixture) ... Done.
Setting thimble-inner (mixture) ... Done.
Setting thimble-walls (mixture) ... Done.

     parallel,
Done.

Setting Post Processing and Surfaces information ...	 Done.
WB->Fluent:Parameter name:MFR, value:0.004478349
WB->Fluent:Parameter name:Pin, value:9902524
WB->Fluent:Parameter name:Kin, value:0.0748366
WB->Fluent:Parameter name:Epsin, value:5.037401
WB->Fluent:Parameter name:Tin, value:377.3358
WB->Fluent:Parameter name:Pout, value:9868835
WB->Fluent:Parameter name:Kout, value:0.0612077
WB->Fluent:Parameter name:Epsout, value:7.388216
WB->Fluent:Parameter name:Tout, value:423.3517
WB->Fluent:Parameter name:SurfHeatflux, value:4711474
WB->Fluent:Parameter name:Massfluxin, value:62.65147
WB->Fluent:Parameter name:Vturbin, value:0.0001827
WB->Fluent:Parameter name:Vturbout, value:8.332e-05
WB->Fluent:Parameter name:Omega-in, value:420.581
WB->Fluent:Parameter name:Omega-out, value:754.208
"Updating Setup cell..."
WB->Fluent:Parameter name:MFR, value:0.004478349
WB->Fluent:Parameter name:Pin, value:9902524
WB->Fluent:Parameter name:Kin, value:0.0748366
WB->Fluent:Parameter name:Epsin, value:5.037401
WB->Fluent:Parameter name:Tin, value:377.3358
WB->Fluent:Parameter name:Pout, value:9868835
WB->Fluent:Parameter name:Kout, value:0.0612077
WB->Fluent:Parameter name:Epsout, value:7.388216
WB->Fluent:Parameter name:Tout, value:423.3517
WB->Fluent:Parameter name:SurfHeatflux, value:4711474
WB->Fluent:Parameter name:Massfluxin, value:62.65147
WB->Fluent:Parameter name:Vturbin, value:0.0001827
WB->Fluent:Parameter name:Vturbout, value:8.332e-05
WB->Fluent:Parameter name:Omega-in, value:420.581
WB->Fluent:Parameter name:Omega-out, value:754.208
"Updating Solution cell..."
Initialization based on settings...

Initialize using the hybrid initialization method.

Checking case topology... 
-This case has both inlets & outlets 
-Pressure information is not available at the boundaries.
 Case will be initialized with constant pressure

	iter		scalar-0

	1		1.000000e+00
	2		7.433203e-07
	3		2.490063e-07
	4		1.396414e-07
	5		7.845452e-08
	6		5.747945e-08
	7		4.590251e-08
	8		3.884493e-08
	9		3.508166e-08
	10		3.265744e-08
hybrid initialization is done.
  iter  continuity  x-velocity  y-velocity  z-velocity      energy           k     epsilon     cs-temp        p-in     time/iter
     1  1.0000e+00  4.6644e-03  3.8683e-03  1.0709e-02  3.1034e-06  1.9213e-01  7.3565e+02  4.1507e+02  9.8722e+06  2:14:06  149
     2  1.0000e+00  1.6183e-03  1.3991e-03  3.7043e-03  7.2204e-06  1.6305e-01  6.4465e-01  4.5657e+02  9.8747e+06  2:10:14  148

 reversed flow in 52 faces on pressure-outlet 293. 
     3  8.8071e-01  1.9983e-03  1.8780e-03  3.1040e-03  1.0304e-05  1.2417e-01  7.4083e-01  5.0223e+02  9.8790e+06  2:03:05  147
     4  9.1639e-01  1.7750e-03  1.7082e-03  2.5187e-03  1.3727e-05  1.3589e-01  7.0317e-01  5.5245e+02  9.8807e+06  1:59:13  146
     5  8.7950e-01  1.7914e-03  1.7390e-03  2.1742e-03  1.3658e-05  1.2671e-01  4.3803e-01  6.0746e+02  9.8834e+06  1:53:05  145
     6  7.8841e-01  1.6335e-03  1.5971e-03  2.0294e-03  1.3423e-05  1.1250e-01  4.1433e-01  6.1830e+02  9.8851e+06  1:46:39  144
     7  7.2169e-01  1.5600e-03  1.5257e-03  1.9422e-03  1.5069e-05  9.2362e-02  3.8466e-01  6.2649e+02  9.8864e+06  1:41:24  143
     8  6.7004e-01  1.4107e-03  1.3996e-03  1.7279e-03  1.2480e-05  7.4094e-02  3.1912e-01  6.3230e+02  9.8883e+06  1:35:14  142
     9  6.3020e-01  1.2786e-03  1.2752e-03  1.5527e-03  1.1430e-05  6.0736e-02  2.6444e-01  6.3340e+02  9.8889e+06  1:29:45  141

 reversed flow in 4 faces on pressure-outlet 293. 
    10  5.8495e-01  1.1063e-03  1.0981e-03  1.3030e-03  6.6793e-06  5.0064e-02  2.2233e-01  6.3336e+02  9.8895e+06  1:25:17  140

 reversed flow in 90 faces on pressure-outlet 293. 
    11  5.1909e-01  9.5726e-04  9.5197e-04  1.1400e-03  5.5585e-06  4.1371e-02  1.8478e-01  6.3271e+02  9.8897e+06  1:21:39  139

 reversed flow in 191 faces on pressure-outlet 293. 
  iter  continuity  x-velocity  y-velocity  z-velocity      energy           k     epsilon     cs-temp        p-in     time/iter
    12  4.6596e-01  8.5814e-04  8.4892e-04  1.0277e-03  4.7236e-06  3.4575e-02  1.4845e-01  6.3112e+02  9.8903e+06  1:19:34  138

 reversed flow in 228 faces on pressure-outlet 293. 
    13  4.3090e-01  7.7963e-04  7.6712e-04  9.1671e-04  3.9857e-06  2.9574e-02  1.1832e-01  6.2896e+02  9.8907e+06  1:17:48  137

 reversed flow in 213 faces on pressure-outlet 293. 
    14  4.0255e-01  7.1214e-04  6.9444e-04  8.2910e-04  3.3499e-06  2.5727e-02  9.6987e-02  6.2658e+02  9.8911e+06  1:14:56  136

 reversed flow in 128 faces on pressure-outlet 293. 
    15  3.7434e-01  6.2763e-04  6.1430e-04  7.5256e-04  2.9048e-06  2.2760e-02  8.1248e-02  6.2391e+02  9.8914e+06  1:12:06  135

 reversed flow in 42 faces on pressure-outlet 293. 
    16  3.4957e-01  5.6792e-04  5.4661e-04  7.1297e-04  2.6176e-06  2.0304e-02  6.9267e-02  6.2115e+02  9.8915e+06  1:09:46  134

 reversed flow in 3 faces on pressure-outlet 293. 
    17  3.2747e-01  5.3061e-04  5.0913e-04  6.8439e-04  2.3447e-06  1.8111e-02  5.9428e-02  6.1839e+02  9.8917e+06  1:07:49  133

 reversed flow in 1 faces on pressure-outlet 293. 
    18  3.0991e-01  4.9736e-04  4.7983e-04  6.2385e-04  2.1154e-06  1.6230e-02  5.1262e-02  6.1617e+02  9.8918e+06  1:06:36  132

 reversed flow in 3 faces on pressure-outlet 293. 
    19  2.9457e-01  4.7035e-04  4.4322e-04  5.6748e-04  1.9064e-06  1.4670e-02  4.4397e-02  6.1415e+02  9.8919e+06  1:05:06  131

 reversed flow in 3 faces on pressure-outlet 293. 
    20  2.7855e-01  4.3949e-04  4.1211e-04  5.2753e-04  1.6843e-06  1.3316e-02  3.8637e-02  6.1249e+02  9.8920e+06  1:03:49  130

 reversed flow in 1 faces on pressure-outlet 293. 
    21  2.6271e-01  4.0012e-04  3.7780e-04  4.8697e-04  1.5248e-06  1.2158e-02  3.3944e-02  6.1121e+02  9.8921e+06  1:02:42  129
    22  2.4627e-01  3.6968e-04  3.4578e-04  4.7248e-04  1.4501e-06  1.1189e-02  2.9916e-02  6.1020e+02  9.8922e+06  1:02:09  128

 reversed flow in 3 faces on pressure-outlet 293. 
  iter  continuity  x-velocity  y-velocity  z-velocity      energy           k     epsilon     cs-temp        p-in     time/iter
    23  2.3386e-01  3.6247e-04  3.3961e-04  4.5667e-04  1.3646e-06  1.0341e-02  2.6686e-02  6.0935e+02  9.8923e+06  1:00:45  127
    24  2.2672e-01  3.5568e-04  3.3682e-04  4.3306e-04  1.2821e-06  9.5873e-03  2.4331e-02  6.0869e+02  9.8925e+06  0:59:59  126
    25  2.2033e-01  3.4665e-04  3.2125e-04  4.2208e-04  1.2250e-06  8.9033e-03  2.2338e-02  6.0820e+02  9.8925e+06  0:58:51  125

 reversed flow in 4 faces on pressure-outlet 293. 
    26  2.1428e-01  3.4115e-04  3.0710e-04  4.3021e-04  1.1944e-06  8.2977e-03  2.0152e-02  6.0779e+02  9.8927e+06  0:58:17  124

 reversed flow in 2 faces on pressure-outlet 293. 
    27  2.0602e-01  3.4533e-04  3.0901e-04  4.2303e-04  1.1742e-06  7.8118e-03  1.8427e-02  6.0751e+02  9.8927e+06  0:58:08  123

 reversed flow in 3 faces on pressure-outlet 293. 
    28  1.9798e-01  3.4238e-04  3.0625e-04  4.1078e-04  1.1649e-06  7.3686e-03  1.6979e-02  6.0723e+02  9.8928e+06  0:57:31  122

 reversed flow in 3 faces on pressure-outlet 293. 
    29  1.8843e-01  3.2572e-04  3.0295e-04  4.1134e-04  1.1818e-06  6.9156e-03  1.5590e-02  6.0693e+02  9.8928e+06  0:57:20  121

 reversed flow in 5 faces on pressure-outlet 293. 
    30  1.7727e-01  3.1658e-04  2.9627e-04  3.9945e-04  1.1749e-06  6.4921e-03  1.4429e-02  6.0669e+02  9.8928e+06  0:56:41  120

 reversed flow in 9 faces on pressure-outlet 293. 
    31  1.7214e-01  3.1312e-04  2.8581e-04  3.9264e-04  1.1782e-06  6.1365e-03  1.3455e-02  6.0655e+02  9.8929e+06  0:56:05  119

 reversed flow in 11 faces on pressure-outlet 293. 
    32  1.7047e-01  3.0706e-04  2.8960e-04  3.9844e-04  1.1719e-06  5.8317e-03  1.2719e-02  6.0644e+02  9.8929e+06  0:55:30  118

 reversed flow in 20 faces on pressure-outlet 293. 
    33  1.7073e-01  3.0726e-04  2.9019e-04  3.8764e-04  1.1294e-06  5.5707e-03  1.2140e-02  6.0641e+02  9.8929e+06  0:55:20  117

 reversed flow in 22 faces on pressure-outlet 293. 
  iter  continuity  x-velocity  y-velocity  z-velocity      energy           k     epsilon     cs-temp        p-in     time/iter
    34  1.6693e-01  2.9840e-04  2.7260e-04  3.6415e-04  1.0723e-06  5.3624e-03  1.1636e-02  6.0639e+02  9.8929e+06  0:54:43  116

 reversed flow in 25 faces on pressure-outlet 293. 
    35  1.5645e-01  2.7767e-04  2.6620e-04  3.5785e-04  1.0670e-06  5.1401e-03  1.1146e-02  6.0650e+02  9.8930e+06  0:54:08  115

 reversed flow in 26 faces on pressure-outlet 293. 
    36  1.4992e-01  2.7202e-04  2.6929e-04  3.5008e-04  1.0355e-06  4.8915e-03  1.0679e-02  6.0661e+02  9.8930e+06  0:53:11  114

 reversed flow in 24 faces on pressure-outlet 293. 
    37  1.4586e-01  2.6870e-04  2.5887e-04  3.2696e-04  9.7921e-07  4.6643e-03  1.0185e-02  6.0668e+02  9.8930e+06  0:52:43  113

 reversed flow in 24 faces on pressure-outlet 293. 
    38  1.4334e-01  2.5352e-04  2.4867e-04  3.1532e-04  9.3034e-07  4.4548e-03  9.7160e-03  6.0680e+02  9.8930e+06  0:52:15  112

 reversed flow in 18 faces on pressure-outlet 293. 
    39  1.3932e-01  2.4041e-04  2.4051e-04  3.1425e-04  9.1167e-07  4.2672e-03  9.2722e-03  6.0691e+02  9.8930e+06  0:52:10  111

 reversed flow in 15 faces on pressure-outlet 293. 
    40  1.3336e-01  2.3750e-04  2.2432e-04  3.0596e-04  8.8966e-07  4.1092e-03  8.8252e-03  6.0693e+02  9.8930e+06  0:51:37  110

 reversed flow in 8 faces on pressure-outlet 293. 
    41  1.2696e-01  2.2611e-04  2.1221e-04  2.8597e-04  8.3994e-07  3.9472e-03  8.4559e-03  6.0702e+02  9.8930e+06  0:51:06  109

 reversed flow in 5 faces on pressure-outlet 293. 
    42  1.2172e-01  2.1325e-04  2.0411e-04  2.6656e-04  7.8611e-07  3.7724e-03  8.0740e-03  6.0715e+02  9.8930e+06  0:50:13  108

 reversed flow in 3 faces on pressure-outlet 293. 
    43  1.1404e-01  2.0203e-04  1.8818e-04  2.5697e-04  7.6839e-07  3.5930e-03  7.6516e-03  6.0727e+02  9.8930e+06  0:50:09  107

 reversed flow in 1 faces on pressure-outlet 293. 
    44  1.0912e-01  1.9558e-04  1.8266e-04  2.5189e-04  7.9605e-07  3.4290e-03  7.2489e-03  6.0741e+02  9.8930e+06  0:49:38  106

 reversed flow in 2 faces on pressure-outlet 293. 
  iter  continuity  x-velocity  y-velocity  z-velocity      energy           k     epsilon     cs-temp        p-in     time/iter
    45  1.0620e-01  1.9668e-04  1.8545e-04  2.5199e-04  8.1323e-07  3.2996e-03  6.9431e-03  6.0754e+02  9.8930e+06  0:49:08  105

 reversed flow in 1 faces on pressure-outlet 293. 
    46  1.0479e-01  1.9555e-04  1.8677e-04  2.4896e-04  8.1465e-07  3.1827e-03  6.6442e-03  6.0758e+02  9.8930e+06  0:48:38  104
    47  1.0415e-01  1.8903e-04  1.8581e-04  2.4128e-04  7.6993e-07  3.0723e-03  6.3824e-03  6.0766e+02  9.8930e+06  0:48:09  103
    48  1.0274e-01  1.8291e-04  1.7870e-04  2.3317e-04  7.2732e-07  2.9708e-03  6.1904e-03  6.0775e+02  9.8930e+06  0:47:40  102
    49  9.8768e-02  1.7838e-04  1.6855e-04  2.2491e-04  7.1148e-07  2.8572e-03  5.9984e-03  6.0787e+02  9.8930e+06  0:46:31  101
    50  9.5379e-02  1.7056e-04  1.6268e-04  2.1929e-04  7.0605e-07  2.7284e-03  5.6464e-03  6.0801e+02  9.8930e+06  0:45:31  100
    51  9.2477e-02  1.6553e-04  1.5895e-04  2.1170e-04  6.7976e-07  2.6251e-03  5.3451e-03  6.0813e+02  9.8930e+06  0:44:57   99
    52  8.9344e-02  1.6046e-04  1.5366e-04  1.9703e-04  6.5444e-07  2.5344e-03  5.1330e-03  6.0821e+02  9.8930e+06  0:44:06   98
    53  8.5017e-02  1.5181e-04  1.4873e-04  1.8746e-04  6.3334e-07  2.4456e-03  4.9694e-03  6.0832e+02  9.8930e+06  0:43:39   97
    54  8.1664e-02  1.4871e-04  1.4281e-04  1.8281e-04  6.1292e-07  2.3667e-03  4.8480e-03  6.0841e+02  9.8930e+06  0:42:53   96
    55  7.8231e-02  1.4672e-04  1.3758e-04  1.7645e-04  5.8248e-07  2.2947e-03  4.7234e-03  6.0851e+02  9.8930e+06  0:42:11   95
  iter  continuity  x-velocity  y-velocity  z-velocity      energy           k     epsilon     cs-temp        p-in     time/iter
    56  7.7042e-02  1.3745e-04  1.3341e-04  1.7156e-04  5.6917e-07  2.2216e-03  4.6006e-03  6.0866e+02  9.8930e+06  0:41:32   94
    57  7.5600e-02  1.3253e-04  1.3068e-04  1.6929e-04  5.6982e-07  2.1609e-03  4.5243e-03  6.0880e+02  9.8930e+06  0:40:56   93
    58  7.3398e-02  1.3366e-04  1.2791e-04  1.6236e-04  5.6166e-07  2.1031e-03  4.4486e-03  6.0889e+02  9.8930e+06  0:40:22   92
    59  7.0950e-02  1.2744e-04  1.2422e-04  1.5446e-04  5.4144e-07  2.0387e-03  4.3388e-03  6.0900e+02  9.8930e+06  0:40:08   91
    60  6.9514e-02  1.2292e-04  1.1911e-04  1.5075e-04  5.1580e-07  1.9807e-03  4.2325e-03  6.0910e+02  9.8930e+06  0:39:33   90
    61  6.6868e-02  1.2259e-04  1.1486e-04  1.4504e-04  4.9329e-07  1.9295e-03  4.1120e-03  6.0921e+02  9.8930e+06  0:39:00   89
    62  6.3969e-02  1.1549e-04  1.1072e-04  1.3894e-04  4.7944e-07  1.8755e-03  3.9707e-03  6.0936e+02  9.8930e+06  0:38:46   88
    63  6.1661e-02  1.0924e-04  1.0741e-04  1.3577e-04  4.7599e-07  1.8235e-03  3.8387e-03  6.0950e+02  9.8930e+06  0:38:12   87
    64  5.9232e-02  1.0898e-04  1.0572e-04  1.3153e-04  4.5583e-07  1.7770e-03  3.7294e-03  6.0963e+02  9.8930e+06  0:37:40   86

 reversed flow in 2 faces on pressure-outlet 293. 
    65  5.7408e-02  1.0442e-04  1.0309e-04  1.2470e-04  4.3475e-07  1.7278e-03  3.6480e-03  6.0973e+02  9.8930e+06  0:37:09   85

 reversed flow in 4 faces on pressure-outlet 293. 
    66  5.5825e-02  9.8883e-05  9.8381e-05  1.1944e-04  4.1406e-07  1.6799e-03  3.5684e-03  6.0985e+02  9.8930e+06  0:37:13   84

 reversed flow in 5 faces on pressure-outlet 293. 
  iter  continuity  x-velocity  y-velocity  z-velocity      energy           k     epsilon     cs-temp        p-in     time/iter
    67  5.3454e-02  9.7977e-05  9.3271e-05  1.1348e-04  4.0176e-07  1.6380e-03  3.4307e-03  6.0996e+02  9.8930e+06  0:37:10   83

 reversed flow in 6 faces on pressure-outlet 293. 
    68  5.0375e-02  9.3551e-05  8.9197e-05  1.0844e-04  3.8430e-07  1.5963e-03  3.3253e-03  6.1010e+02  9.8930e+06  0:37:01   82

 reversed flow in 8 faces on pressure-outlet 293. 
    69  4.9065e-02  8.6808e-05  8.5979e-05  1.0627e-04  3.7620e-07  1.5534e-03  3.2224e-03  6.1025e+02  9.8930e+06  0:36:49   81

 reversed flow in 10 faces on pressure-outlet 293. 
    70  4.7318e-02  8.4927e-05  8.3377e-05  1.0254e-04  3.6372e-07  1.5150e-03  3.1338e-03  6.1039e+02  9.8930e+06  0:36:33   80

 reversed flow in 10 faces on pressure-outlet 293. 
    71  4.5658e-02  8.1920e-05  8.0420e-05  9.6673e-05  3.4937e-07  1.4765e-03  3.0471e-03  6.1050e+02  9.8931e+06  0:36:15   79

 reversed flow in 11 faces on pressure-outlet 293. 
    72  4.4326e-02  7.6343e-05  7.6628e-05  9.2255e-05  3.3036e-07  1.4375e-03  2.9797e-03  6.1060e+02  9.8931e+06  0:35:55   78

 reversed flow in 11 faces on pressure-outlet 293. 
    73  4.3075e-02  7.4578e-05  7.2393e-05  8.7677e-05  3.1265e-07  1.4028e-03  2.9188e-03  6.1071e+02  9.8931e+06  0:35:33   77

 reversed flow in 11 faces on pressure-outlet 293. 
    74  4.0765e-02  7.2304e-05  6.8398e-05  8.2459e-05  2.9354e-07  1.3711e-03  2.8512e-03  6.1082e+02  9.8931e+06  0:35:25   76

 reversed flow in 12 faces on pressure-outlet 293. 
    75  3.8806e-02  6.5569e-05  6.4634e-05  7.9181e-05  2.8387e-07  1.3371e-03  2.7830e-03  6.1095e+02  9.8931e+06  0:34:43   75

 reversed flow in 12 faces on pressure-outlet 293. 
    76  3.6932e-02  6.2341e-05  6.1935e-05  7.5857e-05  2.7791e-07  1.3049e-03  2.7389e-03  6.1106e+02  9.8931e+06  0:34:18   74

 reversed flow in 12 faces on pressure-outlet 293. 
    77  3.4895e-02  6.0813e-05  5.9720e-05  7.1703e-05  2.6488e-07  1.2748e-03  2.7235e-03  6.1117e+02  9.8931e+06  0:33:53   73

 reversed flow in 12 faces on pressure-outlet 293. 
  iter  continuity  x-velocity  y-velocity  z-velocity      energy           k     epsilon     cs-temp        p-in     time/iter
    78  3.3947e-02  5.6505e-05  5.7111e-05  6.8326e-05  2.4765e-07  1.2442e-03  2.6826e-03  6.1127e+02  9.8931e+06  0:33:13   72

 reversed flow in 12 faces on pressure-outlet 293. 
    79  3.3152e-02  5.3565e-05  5.3638e-05  6.5206e-05  2.2933e-07  1.2146e-03  2.6007e-03  6.1136e+02  9.8931e+06  0:33:04   71

 reversed flow in 11 faces on pressure-outlet 293. 
    80  3.1673e-02  5.2157e-05  4.9590e-05  6.1100e-05  2.1424e-07  1.1880e-03  2.5373e-03  6.1146e+02  9.8931e+06  0:32:37   70

 reversed flow in 11 faces on pressure-outlet 293. 
    81  2.9691e-02  4.7694e-05  4.5866e-05  5.7321e-05  2.0198e-07  1.1609e-03  2.4522e-03  6.1156e+02  9.8931e+06  0:31:56   69

 reversed flow in 11 faces on pressure-outlet 293. 
    82  2.7894e-02  4.3818e-05  4.3171e-05  5.4206e-05  1.9436e-07  1.1332e-03  2.3764e-03  6.1166e+02  9.8931e+06  0:31:31   68

 reversed flow in 11 faces on pressure-outlet 293. 
    83  2.5962e-02  4.1793e-05  4.1098e-05  5.0382e-05  1.8227e-07  1.1066e-03  2.3186e-03  6.1175e+02  9.8931e+06  0:31:06   67

 reversed flow in 11 faces on pressure-outlet 293. 
    84  2.4536e-02  3.8399e-05  3.8697e-05  4.6952e-05  1.6779e-07  1.0810e-03  2.2670e-03  6.1183e+02  9.8931e+06  0:30:53   66

 reversed flow in 11 faces on pressure-outlet 293. 
    85  2.3264e-02  3.4956e-05  3.5902e-05  4.4256e-05  1.5505e-07  1.0568e-03  2.2177e-03  6.1190e+02  9.8931e+06  0:30:24   65

 reversed flow in 12 faces on pressure-outlet 293. 
    86  2.1828e-02  3.3599e-05  3.2879e-05  4.1048e-05  1.4366e-07  1.0337e-03  2.1634e-03  6.1198e+02  9.8931e+06  0:29:55   64

 reversed flow in 12 faces on pressure-outlet 293. 
    87  2.0145e-02  3.1464e-05  3.0034e-05  3.8008e-05  1.3184e-07  1.0115e-03  2.1091e-03  6.1205e+02  9.8931e+06  0:29:27   63

 reversed flow in 12 faces on pressure-outlet 293. 
    88  1.8863e-02  2.8432e-05  2.7672e-05  3.5798e-05  1.2283e-07  9.8900e-04  2.0502e-03  6.1213e+02  9.8931e+06  0:28:58   62

 reversed flow in 12 faces on pressure-outlet 293. 
  iter  continuity  x-velocity  y-velocity  z-velocity      energy           k     epsilon     cs-temp        p-in     time/iter
    89  1.7686e-02  2.6789e-05  2.6002e-05  3.3384e-05  1.1619e-07  9.6675e-04  2.0240e-03  6.1221e+02  9.8931e+06  0:28:30   61

 reversed flow in 12 faces on pressure-outlet 293. 
    90  1.6568e-02  2.4931e-05  2.4507e-05  3.1081e-05  1.0884e-07  9.4508e-04  1.9930e-03  6.1227e+02  9.8931e+06  0:28:01   60

 reversed flow in 11 faces on pressure-outlet 293. 
    91  1.5691e-02  2.2553e-05  2.2795e-05  2.9333e-05  1.0126e-07  9.2496e-04  1.9705e-03  6.1233e+02  9.8931e+06  0:27:45   59

 reversed flow in 11 faces on pressure-outlet 293. 
    92  1.4955e-02  2.1079e-05  2.1153e-05  2.7415e-05  9.2943e-08  9.0574e-04  1.9598e-03  6.1241e+02  9.8931e+06  0:27:14   58

 reversed flow in 11 faces on pressure-outlet 293. 
    93  1.4079e-02  1.9956e-05  1.9329e-05  2.5260e-05  8.2769e-08  8.8683e-04  1.9337e-03  6.1247e+02  9.8932e+06  0:26:55   57

 reversed flow in 10 faces on pressure-outlet 293. 
    94  1.3084e-02  1.8096e-05  1.7447e-05  2.3377e-05  7.6407e-08  8.6761e-04  1.8736e-03  6.1255e+02  9.8932e+06  0:26:01   56

 reversed flow in 10 faces on pressure-outlet 293. 
    95  1.2084e-02  1.6540e-05  1.6178e-05  2.1762e-05  7.1588e-08  8.4886e-04  1.8154e-03  6.1262e+02  9.8932e+06  0:25:45   55

 reversed flow in 10 faces on pressure-outlet 293. 
    96  1.1129e-02  1.5477e-05  1.5273e-05  2.0306e-05  6.7920e-08  8.3061e-04  1.7634e-03  6.1267e+02  9.8932e+06  0:25:16   54

 reversed flow in 9 faces on pressure-outlet 293. 
    97  1.0476e-02  1.4291e-05  1.4400e-05  1.9330e-05  6.4380e-08  8.1320e-04  1.7180e-03  6.1272e+02  9.8932e+06  0:24:58   53

 reversed flow in 9 faces on pressure-outlet 293. 
    98  1.0072e-02  1.3336e-05  1.3527e-05  1.8531e-05  5.9869e-08  7.9647e-04  1.6764e-03  6.1278e+02  9.8932e+06  0:24:27   52

 reversed flow in 8 faces on pressure-outlet 293. 
    99  9.6726e-03  1.2730e-05  1.2532e-05  1.7478e-05  5.4053e-08  7.8005e-04  1.6378e-03  6.1284e+02  9.8932e+06  0:24:07   51

 reversed flow in 8 faces on pressure-outlet 293. 
  iter  continuity  x-velocity  y-velocity  z-velocity      energy           k     epsilon     cs-temp        p-in     time/iter
   100  9.1436e-03  1.2042e-05  1.1442e-05  1.6336e-05  4.9106e-08  7.6380e-04  1.6004e-03  6.1289e+02  9.8932e+06  0:23:35   50

 reversed flow in 8 faces on pressure-outlet 293. 
   101  8.5923e-03  1.1147e-05  1.0594e-05  1.5288e-05  4.5910e-08  7.4814e-04  1.5710e-03  6.1294e+02  9.8932e+06  0:23:04   49

 reversed flow in 6 faces on pressure-outlet 293. 
   102  8.0576e-03  1.0461e-05  1.0019e-05  1.4340e-05  4.3973e-08  7.3294e-04  1.5449e-03  6.1300e+02  9.8932e+06  0:22:43   48

 reversed flow in 5 faces on pressure-outlet 293. 
   103  7.5492e-03  9.8427e-06  9.5276e-06  1.3709e-05  4.2476e-08  7.1837e-04  1.5161e-03  6.1304e+02  9.8932e+06  0:22:20   47

 reversed flow in 5 faces on pressure-outlet 293. 
   104  7.2469e-03  9.2955e-06  9.0443e-06  1.3265e-05  4.0478e-08  7.0418e-04  1.4857e-03  6.1309e+02  9.8932e+06  0:21:56   46

 reversed flow in 5 faces on pressure-outlet 293. 
   105  7.0287e-03  8.9133e-06  8.5940e-06  1.2791e-05  3.8296e-08  6.9014e-04  1.4458e-03  6.1313e+02  9.8932e+06  0:21:22   45

 reversed flow in 4 faces on pressure-outlet 293. 
   106  6.7778e-03  8.6498e-06  8.1125e-06  1.2271e-05  3.5865e-08  6.7644e-04  1.4188e-03  6.1318e+02  9.8932e+06  0:20:49   44

 reversed flow in 4 faces on pressure-outlet 293. 
   107  6.4734e-03  8.3350e-06  7.6695e-06  1.1725e-05  3.3546e-08  6.6307e-04  1.4001e-03  6.1322e+02  9.8932e+06  0:20:17   43

 reversed flow in 4 faces on pressure-outlet 293. 
   108  6.1781e-03  8.0143e-06  7.4057e-06  1.1237e-05  3.2161e-08  6.5013e-04  1.3780e-03  6.1326e+02  9.8932e+06  0:19:46   42

 reversed flow in 3 faces on pressure-outlet 293. 
   109  5.9331e-03  7.7599e-06  7.2191e-06  1.0898e-05  3.1464e-08  6.3778e-04  1.3614e-03  6.1330e+02  9.8932e+06  0:19:24   41

 reversed flow in 3 faces on pressure-outlet 293. 
   110  5.7621e-03  7.4969e-06  7.0617e-06  1.0685e-05  3.0749e-08  6.2592e-04  1.3587e-03  6.1334e+02  9.8932e+06  0:19:01   40

 reversed flow in 3 faces on pressure-outlet 293. 
  iter  continuity  x-velocity  y-velocity  z-velocity      energy           k     epsilon     cs-temp        p-in     time/iter
   111  5.6211e-03  7.2758e-06  6.8959e-06  1.0478e-05  2.9814e-08  6.1444e-04  1.3618e-03  6.1338e+02  9.8932e+06  0:18:28   39

 reversed flow in 3 faces on pressure-outlet 293. 
   112  5.5173e-03  7.0638e-06  6.6726e-06  1.0191e-05  2.8687e-08  6.0259e-04  1.3259e-03  6.1341e+02  9.8932e+06  0:18:04   38

 reversed flow in 3 faces on pressure-outlet 293. 
   113  5.3263e-03  6.8805e-06  6.4339e-06  9.8849e-06  2.7358e-08  5.9097e-04  1.2738e-03  6.1345e+02  9.8932e+06  0:17:32   37

 reversed flow in 1 faces on pressure-outlet 293. 
   114  5.1405e-03  6.7039e-06  6.2391e-06  9.5613e-06  2.6368e-08  5.7965e-04  1.2498e-03  6.1349e+02  9.8932e+06  0:17:07   36

 reversed flow in 1 faces on pressure-outlet 293. 
   115  4.9886e-03  6.5355e-06  6.0991e-06  9.2980e-06  2.5723e-08  5.6876e-04  1.2249e-03  6.1352e+02  9.8932e+06  0:16:42   35

 reversed flow in 1 faces on pressure-outlet 293. 
   116  4.8499e-03  6.3648e-06  5.9697e-06  9.1204e-06  2.5169e-08  5.5818e-04  1.1992e-03  6.1355e+02  9.8932e+06  0:16:09   34

 reversed flow in 1 faces on pressure-outlet 293. 
   117  4.7369e-03  6.1862e-06  5.8511e-06  8.9769e-06  2.4525e-08  5.4808e-04  1.1763e-03  6.1358e+02  9.8932e+06  0:15:37   33

 reversed flow in 2 faces on pressure-outlet 293. 
   118  4.6252e-03  6.0120e-06  5.7037e-06  8.7843e-06  2.3823e-08  5.3808e-04  1.1537e-03  6.1361e+02  9.8932e+06  0:15:13   32

 reversed flow in 2 faces on pressure-outlet 293. 
   119  4.4978e-03  5.8613e-06  5.5512e-06  8.5812e-06  2.3075e-08  5.2835e-04  1.1327e-03  6.1364e+02  9.8932e+06  0:14:47   31

 reversed flow in 1 faces on pressure-outlet 293. 
   120  4.3369e-03  5.7492e-06  5.4082e-06  8.3605e-06  2.2424e-08  5.1865e-04  1.1079e-03  6.1367e+02  9.8932e+06  0:14:15   30

 reversed flow in 1 faces on pressure-outlet 293. 
   121  4.2136e-03  5.6459e-06  5.2991e-06  8.1639e-06  2.1904e-08  5.0929e-04  1.0812e-03  6.1370e+02  9.8932e+06  0:13:49   29

 reversed flow in 1 faces on pressure-outlet 293. 
  iter  continuity  x-velocity  y-velocity  z-velocity      energy           k     epsilon     cs-temp        p-in     time/iter
   122  4.1013e-03  5.5495e-06  5.1937e-06  7.9889e-06  2.1506e-08  5.0017e-04  1.0710e-03  6.1372e+02  9.8932e+06  0:13:23   28

 reversed flow in 1 faces on pressure-outlet 293. 
   123  4.0276e-03  5.4591e-06  5.0979e-06  7.8557e-06  2.1105e-08  4.9138e-04  1.0611e-03  6.1375e+02  9.8932e+06  0:12:56   27

 reversed flow in 1 faces on pressure-outlet 293. 
   124  3.9805e-03  5.3776e-06  5.0102e-06  7.7431e-06  2.0677e-08  4.8285e-04  1.0518e-03  6.1377e+02  9.8932e+06  0:12:29   26

 reversed flow in 1 faces on pressure-outlet 293. 
   125  3.9278e-03  5.2950e-06  4.9263e-06  7.6157e-06  2.0183e-08  4.7462e-04  1.0506e-03  6.1380e+02  9.8932e+06  0:11:51   25
   126  3.8648e-03  5.2088e-06  4.8345e-06  7.4856e-06  1.9704e-08  4.6664e-04  1.0543e-03  6.1382e+02  9.8932e+06  0:11:20   24
   127  3.7921e-03  5.1191e-06  4.7448e-06  7.3434e-06  1.9252e-08  4.5855e-04  1.0429e-03  6.1384e+02  9.8932e+06  0:10:50   23
   128  3.6971e-03  5.0203e-06  4.6602e-06  7.2148e-06  1.8870e-08  4.5048e-04  1.0097e-03  6.1386e+02  9.8932e+06  0:10:21   22
   129  3.5976e-03  4.9147e-06  4.5671e-06  7.0760e-06  1.8538e-08  4.4242e-04  9.7156e-04  6.1388e+02  9.8932e+06  0:09:56   21
   130  3.5064e-03  4.8093e-06  4.4743e-06  6.9386e-06  1.8213e-08  4.3470e-04  9.5043e-04  6.1391e+02  9.8932e+06  0:09:26   20
   131  3.4243e-03  4.7073e-06  4.3912e-06  6.7976e-06  1.7864e-08  4.2705e-04  9.2917e-04  6.1393e+02  9.8932e+06  0:08:53   19
   132  3.3380e-03  4.6170e-06  4.3078e-06  6.6625e-06  1.7501e-08  4.1954e-04  9.0679e-04  6.1394e+02  9.8932e+06  0:08:21   18
  iter  continuity  x-velocity  y-velocity  z-velocity      energy           k     epsilon     cs-temp        p-in     time/iter
   133  3.2693e-03  4.5318e-06  4.2282e-06  6.5392e-06  1.7141e-08  4.1220e-04  8.8522e-04  6.1396e+02  9.8932e+06  0:07:50   17
   134  3.2078e-03  4.4572e-06  4.1541e-06  6.4212e-06  1.6792e-08  4.0501e-04  8.6310e-04  6.1398e+02  9.8932e+06  0:07:17   16
   135  3.1537e-03  4.3837e-06  4.0798e-06  6.3140e-06  1.6454e-08  3.9809e-04  8.4303e-04  6.1400e+02  9.8932e+06  0:06:49   15
   136  3.0853e-03  4.3197e-06  3.9975e-06  6.2093e-06  1.6136e-08  3.9134e-04  8.2624e-04  6.1402e+02  9.8932e+06  0:06:18   14
   137  3.0224e-03  4.2413e-06  3.9140e-06  6.1020e-06  1.5830e-08  3.8480e-04  8.1272e-04  6.1403e+02  9.8932e+06  0:05:51   13
   138  2.9569e-03  4.1650e-06  3.8300e-06  5.9923e-06  1.5532e-08  3.7836e-04  7.9868e-04  6.1405e+02  9.8932e+06  0:05:24   12
   139  2.8886e-03  4.0985e-06  3.7554e-06  5.8951e-06  1.5259e-08  3.7208e-04  7.8286e-04  6.1406e+02  9.8932e+06  0:04:55   11
   140  2.8204e-03  4.0360e-06  3.6881e-06  5.7891e-06  1.4993e-08  3.6590e-04  7.7468e-04  6.1408e+02  9.8932e+06  0:04:28   10
   141  2.7671e-03  3.9773e-06  3.6393e-06  5.6974e-06  1.4727e-08  3.5992e-04  7.6677e-04  6.1409e+02  9.8932e+06  0:04:02    9
   142  2.7379e-03  3.9332e-06  3.5955e-06  5.6152e-06  1.4471e-08  3.5407e-04  7.5509e-04  6.1410e+02  9.8932e+06  0:03:34    8
   143  2.7131e-03  3.8935e-06  3.5711e-06  5.5557e-06  1.4210e-08  3.4851e-04  7.5744e-04  6.1412e+02  9.8932e+06  0:03:07    7
  iter  continuity  x-velocity  y-velocity  z-velocity      energy           k     epsilon     cs-temp        p-in     time/iter
   144  2.7083e-03  3.8648e-06  3.5321e-06  5.4850e-06  1.3964e-08  3.4313e-04  7.7005e-04  6.1413e+02  9.8932e+06  0:02:40    6
   145  2.6990e-03  3.8359e-06  3.4863e-06  5.4281e-06  1.3716e-08  3.3772e-04  7.7341e-04  6.1414e+02  9.8932e+06  0:02:13    5
   146  2.6686e-03  3.7735e-06  3.4178e-06  5.3551e-06  1.3478e-08  3.3204e-04  7.4219e-04  6.1416e+02  9.8932e+06  0:01:47    4
   147  2.5839e-03  3.7070e-06  3.3555e-06  5.2609e-06  1.3254e-08  3.2646e-04  7.1443e-04  6.1417e+02  9.8932e+06  0:01:20    3
   148  2.5291e-03  3.6427e-06  3.2894e-06  5.1658e-06  1.3031e-08  3.2101e-04  6.9560e-04  6.1418e+02  9.8932e+06  0:00:53    2
   149  2.4938e-03  3.5805e-06  3.2406e-06  5.0848e-06  1.2813e-08  3.1574e-04  6.7897e-04  6.1419e+02  9.8932e+06  0:00:27    1
   150  2.4670e-03  3.5154e-06  3.1941e-06  5.0024e-06  1.2602e-08  3.1065e-04  6.6244e-04  6.1420e+02  9.8932e+06  0:00:00    0
Writing "| gzip -2cf > HEMJ60deg-2-1.cas.gz"...
Writing temporary file C:\Users\Bailey\AppData\Local\Temp\flntgz-53402 ...
  843346 hexahedral cells, zone 25, binary.
  930690 hexahedral cells, zone 26, binary.
 4348661 hexahedral cells, zone 27, binary.
  843346 cell partition ids, zone 25, 4 partitions, binary.
  930690 cell partition ids, zone 26, 4 partitions, binary.
 4348661 cell partition ids, zone 27, 4 partitions, binary.
 2491318 quadrilateral interior faces, zone 28, binary.
 2753640 quadrilateral interior faces, zone 29, binary.
12920154 quadrilateral interior faces, zone 30, binary.
    6680 quadrilateral wall faces, zone  4, binary.
    7614 quadrilateral wall faces, zone  5, binary.
    5643 quadrilateral wall faces, zone  6, binary.
    2808 quadrilateral wall faces, zone  7, binary.
    2376 quadrilateral wall faces, zone  8, binary.
    3672 quadrilateral wall faces, zone  9, binary.
    7533 quadrilateral wall faces, zone 39, binary.
    6680 quadrilateral wall faces, zone 42, binary.
    7614 quadrilateral wall faces, zone 43, binary.
    5643 quadrilateral wall faces, zone 46, binary.
    2808 quadrilateral wall faces, zone 47, binary.
    2376 quadrilateral wall faces, zone 48, binary.
    3672 quadrilateral wall faces, zone 49, binary.
    3186 quadrilateral wall faces, zone 173, binary.
    3132 quadrilateral wall faces, zone 244, binary.
   31050 quadrilateral wall faces, zone 245, binary.
    3132 quadrilateral wall faces, zone 249, binary.
   31050 quadrilateral wall faces, zone 267, binary.
   14850 quadrilateral wall faces, zone 303, binary.
    6966 quadrilateral pressure-outlet faces, zone 293, binary.
   18423 quadrilateral symmetry faces, zone 36, binary.
   85202 quadrilateral symmetry faces, zone 37, binary.
   14455 quadrilateral symmetry faces, zone 38, binary.
   85202 quadrilateral symmetry faces, zone 261, binary.
   14455 quadrilateral symmetry faces, zone 262, binary.
   18423 quadrilateral symmetry faces, zone 263, binary.
   11313 quadrilateral mass-flow-inlet faces, zone 292, binary.
    6680 shadow face pairs, binary.
    7614 shadow face pairs, binary.
    5643 shadow face pairs, binary.
    2808 shadow face pairs, binary.
    2376 shadow face pairs, binary.
    3672 shadow face pairs, binary.
    3132 shadow face pairs, binary.
   31050 shadow face pairs, binary.
 6324416 nodes, binary.
 6324416 node flags, binary.
Done.

Writing "| gzip -2cf > HEMJ60deg-2-1-00150.dat.gz"...
Writing temporary file C:\Users\Bailey\AppData\Local\Temp\flntgz-53403 ...
Done.

